/*---------------------------------------------------------------------------*\
| =========                |                                                 |
| \      /  F ield         | OpenFOAM: The Open Source CFD Toolbox           |
|  \    /   O peration     | Script: c:/Users/finne/Documents/flow_sphere/blockmeshing.py|
|   \  /    A nd           | Time: 2025-12-22 11:57:56.355793                |
|    \/     M anipulation  |                                                 |
\*---------------------------------------------------------------------------*/
FoamFile
{
    version     2.0;
    format      ascii;
    class       dictionary;
    object      blockMeshDict;
}
// * * * * * * * * * * * * * * * * * * * * * * * * * * * * * * * * * * * * * //

vertices
(
	(-0.00429289 -0.00429289 0.00000000) // 0
	(-0.00300000 -0.00300000 0.00000000) // 1
	(-0.00700000 -0.00300000 0.00000000) // 2
	(-0.00570711 -0.00429289 0.00000000) // 3
	(-0.00429289 -0.00429289 0.00100000) // 4
	(-0.00300000 -0.00300000 0.00100000) // 5
	(-0.00700000 -0.00300000 0.00100000) // 6
	(-0.00570711 -0.00429289 0.00100000) // 7
	(-0.00700000 -0.00700000 0.00000000) // 8
	(-0.00570711 -0.00570711 0.00000000) // 9
	(-0.00700000 -0.00700000 0.00100000) // 10
	(-0.00570711 -0.00570711 0.00100000) // 11
	(-0.00300000 -0.00700000 0.00000000) // 12
	(-0.00429289 -0.00570711 0.00000000) // 13
	(-0.00300000 -0.00700000 0.00100000) // 14
	(-0.00429289 -0.00570711 0.00100000) // 15
	(-0.00029289 -0.00429289 0.00000000) // 16
	(0.00100000 -0.00300000 0.00000000) // 17
	(-0.00170711 -0.00429289 0.00000000) // 18
	(-0.00029289 -0.00429289 0.00100000) // 19
	(0.00100000 -0.00300000 0.00100000) // 20
	(-0.00170711 -0.00429289 0.00100000) // 21
	(-0.00170711 -0.00570711 0.00000000) // 22
	(-0.00170711 -0.00570711 0.00100000) // 23
	(0.00100000 -0.00700000 0.00000000) // 24
	(-0.00029289 -0.00570711 0.00000000) // 25
	(0.00100000 -0.00700000 0.00100000) // 26
	(-0.00029289 -0.00570711 0.00100000) // 27
	(0.00370711 -0.00429289 0.00000000) // 28
	(0.00500000 -0.00300000 0.00000000) // 29
	(0.00229289 -0.00429289 0.00000000) // 30
	(0.00370711 -0.00429289 0.00100000) // 31
	(0.00500000 -0.00300000 0.00100000) // 32
	(0.00229289 -0.00429289 0.00100000) // 33
	(0.00229289 -0.00570711 0.00000000) // 34
	(0.00229289 -0.00570711 0.00100000) // 35
	(0.00500000 -0.00700000 0.00000000) // 36
	(0.00370711 -0.00570711 0.00000000) // 37
	(0.00500000 -0.00700000 0.00100000) // 38
	(0.00370711 -0.00570711 0.00100000) // 39
	(0.00770711 -0.00429289 0.00000000) // 40
	(0.00900000 -0.00300000 0.00000000) // 41
	(0.00629289 -0.00429289 0.00000000) // 42
	(0.00770711 -0.00429289 0.00100000) // 43
	(0.00900000 -0.00300000 0.00100000) // 44
	(0.00629289 -0.00429289 0.00100000) // 45
	(0.00629289 -0.00570711 0.00000000) // 46
	(0.00629289 -0.00570711 0.00100000) // 47
	(0.00900000 -0.00700000 0.00000000) // 48
	(0.00770711 -0.00570711 0.00000000) // 49
	(0.00900000 -0.00700000 0.00100000) // 50
	(0.00770711 -0.00570711 0.00100000) // 51
	(-0.00429289 -0.00029289 0.00000000) // 52
	(-0.00300000 0.00100000 0.00000000) // 53
	(-0.00700000 0.00100000 0.00000000) // 54
	(-0.00570711 -0.00029289 0.00000000) // 55
	(-0.00429289 -0.00029289 0.00100000) // 56
	(-0.00300000 0.00100000 0.00100000) // 57
	(-0.00700000 0.00100000 0.00100000) // 58
	(-0.00570711 -0.00029289 0.00100000) // 59
	(-0.00570711 -0.00170711 0.00000000) // 60
	(-0.00570711 -0.00170711 0.00100000) // 61
	(-0.00429289 -0.00170711 0.00000000) // 62
	(-0.00429289 -0.00170711 0.00100000) // 63
	(-0.00029289 -0.00029289 0.00000000) // 64
	(0.00100000 0.00100000 0.00000000) // 65
	(-0.00170711 -0.00029289 0.00000000) // 66
	(-0.00029289 -0.00029289 0.00100000) // 67
	(0.00100000 0.00100000 0.00100000) // 68
	(-0.00170711 -0.00029289 0.00100000) // 69
	(-0.00170711 -0.00170711 0.00000000) // 70
	(-0.00170711 -0.00170711 0.00100000) // 71
	(-0.00029289 -0.00170711 0.00000000) // 72
	(-0.00029289 -0.00170711 0.00100000) // 73
	(0.00370711 -0.00029289 0.00000000) // 74
	(0.00500000 0.00100000 0.00000000) // 75
	(0.00229289 -0.00029289 0.00000000) // 76
	(0.00370711 -0.00029289 0.00100000) // 77
	(0.00500000 0.00100000 0.00100000) // 78
	(0.00229289 -0.00029289 0.00100000) // 79
	(0.00229289 -0.00170711 0.00000000) // 80
	(0.00229289 -0.00170711 0.00100000) // 81
	(0.00370711 -0.00170711 0.00000000) // 82
	(0.00370711 -0.00170711 0.00100000) // 83
	(0.00770711 -0.00029289 0.00000000) // 84
	(0.00900000 0.00100000 0.00000000) // 85
	(0.00629289 -0.00029289 0.00000000) // 86
	(0.00770711 -0.00029289 0.00100000) // 87
	(0.00900000 0.00100000 0.00100000) // 88
	(0.00629289 -0.00029289 0.00100000) // 89
	(0.00629289 -0.00170711 0.00000000) // 90
	(0.00629289 -0.00170711 0.00100000) // 91
	(0.00770711 -0.00170711 0.00000000) // 92
	(0.00770711 -0.00170711 0.00100000) // 93
	(-0.00429289 0.00370711 0.00000000) // 94
	(-0.00300000 0.00500000 0.00000000) // 95
	(-0.00700000 0.00500000 0.00000000) // 96
	(-0.00570711 0.00370711 0.00000000) // 97
	(-0.00429289 0.00370711 0.00100000) // 98
	(-0.00300000 0.00500000 0.00100000) // 99
	(-0.00700000 0.00500000 0.00100000) // 100
	(-0.00570711 0.00370711 0.00100000) // 101
	(-0.00570711 0.00229289 0.00000000) // 102
	(-0.00570711 0.00229289 0.00100000) // 103
	(-0.00429289 0.00229289 0.00000000) // 104
	(-0.00429289 0.00229289 0.00100000) // 105
	(-0.00029289 0.00370711 0.00000000) // 106
	(0.00100000 0.00500000 0.00000000) // 107
	(-0.00170711 0.00370711 0.00000000) // 108
	(-0.00029289 0.00370711 0.00100000) // 109
	(0.00100000 0.00500000 0.00100000) // 110
	(-0.00170711 0.00370711 0.00100000) // 111
	(-0.00170711 0.00229289 0.00000000) // 112
	(-0.00170711 0.00229289 0.00100000) // 113
	(-0.00029289 0.00229289 0.00000000) // 114
	(-0.00029289 0.00229289 0.00100000) // 115
	(0.00370711 0.00370711 0.00000000) // 116
	(0.00500000 0.00500000 0.00000000) // 117
	(0.00229289 0.00370711 0.00000000) // 118
	(0.00370711 0.00370711 0.00100000) // 119
	(0.00500000 0.00500000 0.00100000) // 120
	(0.00229289 0.00370711 0.00100000) // 121
	(0.00229289 0.00229289 0.00000000) // 122
	(0.00229289 0.00229289 0.00100000) // 123
	(0.00370711 0.00229289 0.00000000) // 124
	(0.00370711 0.00229289 0.00100000) // 125
	(0.00770711 0.00370711 0.00000000) // 126
	(0.00900000 0.00500000 0.00000000) // 127
	(0.00629289 0.00370711 0.00000000) // 128
	(0.00770711 0.00370711 0.00100000) // 129
	(0.00900000 0.00500000 0.00100000) // 130
	(0.00629289 0.00370711 0.00100000) // 131
	(0.00629289 0.00229289 0.00000000) // 132
	(0.00629289 0.00229289 0.00100000) // 133
	(0.00770711 0.00229289 0.00000000) // 134
	(0.00770711 0.00229289 0.00100000) // 135
	(-0.00429289 0.00770711 0.00000000) // 136
	(-0.00300000 0.00900000 0.00000000) // 137
	(-0.00700000 0.00900000 0.00000000) // 138
	(-0.00570711 0.00770711 0.00000000) // 139
	(-0.00429289 0.00770711 0.00100000) // 140
	(-0.00300000 0.00900000 0.00100000) // 141
	(-0.00700000 0.00900000 0.00100000) // 142
	(-0.00570711 0.00770711 0.00100000) // 143
	(-0.00570711 0.00629289 0.00000000) // 144
	(-0.00570711 0.00629289 0.00100000) // 145
	(-0.00429289 0.00629289 0.00000000) // 146
	(-0.00429289 0.00629289 0.00100000) // 147
	(-0.00029289 0.00770711 0.00000000) // 148
	(0.00100000 0.00900000 0.00000000) // 149
	(-0.00170711 0.00770711 0.00000000) // 150
	(-0.00029289 0.00770711 0.00100000) // 151
	(0.00100000 0.00900000 0.00100000) // 152
	(-0.00170711 0.00770711 0.00100000) // 153
	(-0.00170711 0.00629289 0.00000000) // 154
	(-0.00170711 0.00629289 0.00100000) // 155
	(-0.00029289 0.00629289 0.00000000) // 156
	(-0.00029289 0.00629289 0.00100000) // 157
	(0.00370711 0.00770711 0.00000000) // 158
	(0.00500000 0.00900000 0.00000000) // 159
	(0.00229289 0.00770711 0.00000000) // 160
	(0.00370711 0.00770711 0.00100000) // 161
	(0.00500000 0.00900000 0.00100000) // 162
	(0.00229289 0.00770711 0.00100000) // 163
	(0.00229289 0.00629289 0.00000000) // 164
	(0.00229289 0.00629289 0.00100000) // 165
	(0.00370711 0.00629289 0.00000000) // 166
	(0.00370711 0.00629289 0.00100000) // 167
	(0.00770711 0.00770711 0.00000000) // 168
	(0.00900000 0.00900000 0.00000000) // 169
	(0.00629289 0.00770711 0.00000000) // 170
	(0.00770711 0.00770711 0.00100000) // 171
	(0.00900000 0.00900000 0.00100000) // 172
	(0.00629289 0.00770711 0.00100000) // 173
	(0.00629289 0.00629289 0.00000000) // 174
	(0.00629289 0.00629289 0.00100000) // 175
	(0.00770711 0.00629289 0.00000000) // 176
	(0.00770711 0.00629289 0.00100000) // 177
);

blocks
(
	hex ( 0 1 2 3 4 5 6 7 ) background ( 15 11 1 ) simpleGrading ( 1 4.0 1 ) // 0 
	hex ( 3 2 8 9 7 6 10 11 ) background ( 15 11 1 ) simpleGrading ( 1 4.0 1 ) // 1 
	hex ( 9 8 12 13 11 10 14 15 ) background ( 15 11 1 ) simpleGrading ( 1 4.0 1 ) // 2 
	hex ( 13 12 1 0 15 14 5 4 ) background ( 15 11 1 ) simpleGrading ( 1 4.0 1 ) // 3 
	hex ( 16 17 1 18 19 20 5 21 ) background ( 15 11 1 ) simpleGrading ( 1 4.0 1 ) // 4 
	hex ( 18 1 12 22 21 5 14 23 ) background ( 15 11 1 ) simpleGrading ( 1 0.25 1 ) // 5 
	hex ( 22 12 24 25 23 14 26 27 ) background ( 15 11 1 ) simpleGrading ( 1 4.0 1 ) // 6 
	hex ( 25 24 17 16 27 26 20 19 ) background ( 15 11 1 ) simpleGrading ( 1 4.0 1 ) // 7 
	hex ( 28 29 17 30 31 32 20 33 ) background ( 15 11 1 ) simpleGrading ( 1 4.0 1 ) // 8 
	hex ( 30 17 24 34 33 20 26 35 ) background ( 15 11 1 ) simpleGrading ( 1 0.25 1 ) // 9 
	hex ( 34 24 36 37 35 26 38 39 ) background ( 15 11 1 ) simpleGrading ( 1 4.0 1 ) // 10 
	hex ( 37 36 29 28 39 38 32 31 ) background ( 15 11 1 ) simpleGrading ( 1 4.0 1 ) // 11 
	hex ( 40 41 29 42 43 44 32 45 ) background ( 15 11 1 ) simpleGrading ( 1 4.0 1 ) // 12 
	hex ( 42 29 36 46 45 32 38 47 ) background ( 15 11 1 ) simpleGrading ( 1 0.25 1 ) // 13 
	hex ( 46 36 48 49 47 38 50 51 ) background ( 15 11 1 ) simpleGrading ( 1 4.0 1 ) // 14 
	hex ( 49 48 41 40 51 50 44 43 ) background ( 15 11 1 ) simpleGrading ( 1 4.0 1 ) // 15 
	hex ( 52 53 54 55 56 57 58 59 ) background ( 15 11 1 ) simpleGrading ( 1 4.0 1 ) // 16 
	hex ( 55 54 2 60 59 58 6 61 ) background ( 15 11 1 ) simpleGrading ( 1 4.0 1 ) // 17 
	hex ( 60 2 1 62 61 6 5 63 ) background ( 15 11 1 ) simpleGrading ( 1 0.25 1 ) // 18 
	hex ( 62 1 53 52 63 5 57 56 ) background ( 15 11 1 ) simpleGrading ( 1 4.0 1 ) // 19 
	hex ( 64 65 53 66 67 68 57 69 ) background ( 15 11 1 ) simpleGrading ( 1 4.0 1 ) // 20 
	hex ( 66 53 1 70 69 57 5 71 ) background ( 15 11 1 ) simpleGrading ( 1 0.25 1 ) // 21 
	hex ( 70 1 17 72 71 5 20 73 ) background ( 15 11 1 ) simpleGrading ( 1 0.25 1 ) // 22 
	hex ( 72 17 65 64 73 20 68 67 ) background ( 15 11 1 ) simpleGrading ( 1 4.0 1 ) // 23 
	hex ( 74 75 65 76 77 78 68 79 ) background ( 15 11 1 ) simpleGrading ( 1 4.0 1 ) // 24 
	hex ( 76 65 17 80 79 68 20 81 ) background ( 15 11 1 ) simpleGrading ( 1 0.25 1 ) // 25 
	hex ( 80 17 29 82 81 20 32 83 ) background ( 15 11 1 ) simpleGrading ( 1 0.25 1 ) // 26 
	hex ( 82 29 75 74 83 32 78 77 ) background ( 15 11 1 ) simpleGrading ( 1 4.0 1 ) // 27 
	hex ( 84 85 75 86 87 88 78 89 ) background ( 15 11 1 ) simpleGrading ( 1 4.0 1 ) // 28 
	hex ( 86 75 29 90 89 78 32 91 ) background ( 15 11 1 ) simpleGrading ( 1 0.25 1 ) // 29 
	hex ( 90 29 41 92 91 32 44 93 ) background ( 15 11 1 ) simpleGrading ( 1 0.25 1 ) // 30 
	hex ( 92 41 85 84 93 44 88 87 ) background ( 15 11 1 ) simpleGrading ( 1 4.0 1 ) // 31 
	hex ( 94 95 96 97 98 99 100 101 ) background ( 15 11 1 ) simpleGrading ( 1 4.0 1 ) // 32 
	hex ( 97 96 54 102 101 100 58 103 ) background ( 15 11 1 ) simpleGrading ( 1 4.0 1 ) // 33 
	hex ( 102 54 53 104 103 58 57 105 ) background ( 15 11 1 ) simpleGrading ( 1 0.25 1 ) // 34 
	hex ( 104 53 95 94 105 57 99 98 ) background ( 15 11 1 ) simpleGrading ( 1 4.0 1 ) // 35 
	hex ( 106 107 95 108 109 110 99 111 ) background ( 15 11 1 ) simpleGrading ( 1 4.0 1 ) // 36 
	hex ( 108 95 53 112 111 99 57 113 ) background ( 15 11 1 ) simpleGrading ( 1 0.25 1 ) // 37 
	hex ( 112 53 65 114 113 57 68 115 ) background ( 15 11 1 ) simpleGrading ( 1 0.25 1 ) // 38 
	hex ( 114 65 107 106 115 68 110 109 ) background ( 15 11 1 ) simpleGrading ( 1 4.0 1 ) // 39 
	hex ( 116 117 107 118 119 120 110 121 ) background ( 15 11 1 ) simpleGrading ( 1 4.0 1 ) // 40 
	hex ( 118 107 65 122 121 110 68 123 ) background ( 15 11 1 ) simpleGrading ( 1 0.25 1 ) // 41 
	hex ( 122 65 75 124 123 68 78 125 ) background ( 15 11 1 ) simpleGrading ( 1 0.25 1 ) // 42 
	hex ( 124 75 117 116 125 78 120 119 ) background ( 15 11 1 ) simpleGrading ( 1 4.0 1 ) // 43 
	hex ( 126 127 117 128 129 130 120 131 ) background ( 15 11 1 ) simpleGrading ( 1 4.0 1 ) // 44 
	hex ( 128 117 75 132 131 120 78 133 ) background ( 15 11 1 ) simpleGrading ( 1 0.25 1 ) // 45 
	hex ( 132 75 85 134 133 78 88 135 ) background ( 15 11 1 ) simpleGrading ( 1 0.25 1 ) // 46 
	hex ( 134 85 127 126 135 88 130 129 ) background ( 15 11 1 ) simpleGrading ( 1 4.0 1 ) // 47 
	hex ( 136 137 138 139 140 141 142 143 ) background ( 15 11 1 ) simpleGrading ( 1 4.0 1 ) // 48 
	hex ( 139 138 96 144 143 142 100 145 ) background ( 15 11 1 ) simpleGrading ( 1 4.0 1 ) // 49 
	hex ( 144 96 95 146 145 100 99 147 ) background ( 15 11 1 ) simpleGrading ( 1 0.25 1 ) // 50 
	hex ( 146 95 137 136 147 99 141 140 ) background ( 15 11 1 ) simpleGrading ( 1 4.0 1 ) // 51 
	hex ( 148 149 137 150 151 152 141 153 ) background ( 15 11 1 ) simpleGrading ( 1 4.0 1 ) // 52 
	hex ( 150 137 95 154 153 141 99 155 ) background ( 15 11 1 ) simpleGrading ( 1 0.25 1 ) // 53 
	hex ( 154 95 107 156 155 99 110 157 ) background ( 15 11 1 ) simpleGrading ( 1 0.25 1 ) // 54 
	hex ( 156 107 149 148 157 110 152 151 ) background ( 15 11 1 ) simpleGrading ( 1 4.0 1 ) // 55 
	hex ( 158 159 149 160 161 162 152 163 ) background ( 15 11 1 ) simpleGrading ( 1 4.0 1 ) // 56 
	hex ( 160 149 107 164 163 152 110 165 ) background ( 15 11 1 ) simpleGrading ( 1 0.25 1 ) // 57 
	hex ( 164 107 117 166 165 110 120 167 ) background ( 15 11 1 ) simpleGrading ( 1 0.25 1 ) // 58 
	hex ( 166 117 159 158 167 120 162 161 ) background ( 15 11 1 ) simpleGrading ( 1 4.0 1 ) // 59 
	hex ( 168 169 159 170 171 172 162 173 ) background ( 15 11 1 ) simpleGrading ( 1 4.0 1 ) // 60 
	hex ( 170 159 117 174 173 162 120 175 ) background ( 15 11 1 ) simpleGrading ( 1 0.25 1 ) // 61 
	hex ( 174 117 127 176 175 120 130 177 ) background ( 15 11 1 ) simpleGrading ( 1 0.25 1 ) // 62 
	hex ( 176 127 169 168 177 130 172 171 ) background ( 15 11 1 ) simpleGrading ( 1 4.0 1 ) // 63 
);

edges
(
	arc 0 3 (-0.00500000 -0.00400000 0.00000000) // arc 0 3 origin 1 (-0.00500000 -0.00500000 0.00000000)
	arc 4 7 (-0.00500000 -0.00400000 0.00100000) // arc 4 7 origin 1 (-0.00500000 -0.00500000 0.00100000)
	arc 3 9 (-0.00600000 -0.00500000 0.00000000) // arc 3 9 origin 1 (-0.00500000 -0.00500000 0.00000000)
	arc 7 11 (-0.00600000 -0.00500000 0.00100000) // arc 7 11 origin 1 (-0.00500000 -0.00500000 0.00100000)
	arc 9 13 (-0.00500000 -0.00600000 0.00000000) // arc 9 13 origin 1 (-0.00500000 -0.00500000 0.00000000)
	arc 11 15 (-0.00500000 -0.00600000 0.00100000) // arc 11 15 origin 1 (-0.00500000 -0.00500000 0.00100000)
	arc 13 0 (-0.00400000 -0.00500000 0.00000000) // arc 13 0 origin 1 (-0.00500000 -0.00500000 0.00000000)
	arc 15 4 (-0.00400000 -0.00500000 0.00100000) // arc 15 4 origin 1 (-0.00500000 -0.00500000 0.00100000)
	arc 16 18 (-0.00100000 -0.00400000 0.00000000) // arc 16 18 origin 1 (-0.00100000 -0.00500000 0.00000000)
	arc 19 21 (-0.00100000 -0.00400000 0.00100000) // arc 19 21 origin 1 (-0.00100000 -0.00500000 0.00100000)
	arc 18 22 (-0.00200000 -0.00500000 0.00000000) // arc 18 22 origin 1 (-0.00100000 -0.00500000 0.00000000)
	arc 21 23 (-0.00200000 -0.00500000 0.00100000) // arc 21 23 origin 1 (-0.00100000 -0.00500000 0.00100000)
	arc 22 25 (-0.00100000 -0.00600000 0.00000000) // arc 22 25 origin 1 (-0.00100000 -0.00500000 0.00000000)
	arc 23 27 (-0.00100000 -0.00600000 0.00100000) // arc 23 27 origin 1 (-0.00100000 -0.00500000 0.00100000)
	arc 25 16 (0.00000000 -0.00500000 0.00000000) // arc 25 16 origin 1 (-0.00100000 -0.00500000 0.00000000)
	arc 27 19 (0.00000000 -0.00500000 0.00100000) // arc 27 19 origin 1 (-0.00100000 -0.00500000 0.00100000)
	arc 28 30 (0.00300000 -0.00400000 0.00000000) // arc 28 30 origin 1 (0.00300000 -0.00500000 0.00000000)
	arc 31 33 (0.00300000 -0.00400000 0.00100000) // arc 31 33 origin 1 (0.00300000 -0.00500000 0.00100000)
	arc 30 34 (0.00200000 -0.00500000 0.00000000) // arc 30 34 origin 1 (0.00300000 -0.00500000 0.00000000)
	arc 33 35 (0.00200000 -0.00500000 0.00100000) // arc 33 35 origin 1 (0.00300000 -0.00500000 0.00100000)
	arc 34 37 (0.00300000 -0.00600000 0.00000000) // arc 34 37 origin 1 (0.00300000 -0.00500000 0.00000000)
	arc 35 39 (0.00300000 -0.00600000 0.00100000) // arc 35 39 origin 1 (0.00300000 -0.00500000 0.00100000)
	arc 37 28 (0.00400000 -0.00500000 0.00000000) // arc 37 28 origin 1 (0.00300000 -0.00500000 0.00000000)
	arc 39 31 (0.00400000 -0.00500000 0.00100000) // arc 39 31 origin 1 (0.00300000 -0.00500000 0.00100000)
	arc 40 42 (0.00700000 -0.00400000 0.00000000) // arc 40 42 origin 1 (0.00700000 -0.00500000 0.00000000)
	arc 43 45 (0.00700000 -0.00400000 0.00100000) // arc 43 45 origin 1 (0.00700000 -0.00500000 0.00100000)
	arc 42 46 (0.00600000 -0.00500000 0.00000000) // arc 42 46 origin 1 (0.00700000 -0.00500000 0.00000000)
	arc 45 47 (0.00600000 -0.00500000 0.00100000) // arc 45 47 origin 1 (0.00700000 -0.00500000 0.00100000)
	arc 46 49 (0.00700000 -0.00600000 0.00000000) // arc 46 49 origin 1 (0.00700000 -0.00500000 0.00000000)
	arc 47 51 (0.00700000 -0.00600000 0.00100000) // arc 47 51 origin 1 (0.00700000 -0.00500000 0.00100000)
	arc 49 40 (0.00800000 -0.00500000 0.00000000) // arc 49 40 origin 1 (0.00700000 -0.00500000 0.00000000)
	arc 51 43 (0.00800000 -0.00500000 0.00100000) // arc 51 43 origin 1 (0.00700000 -0.00500000 0.00100000)
	arc 52 55 (-0.00500000 0.00000000 0.00000000) // arc 52 55 origin 1 (-0.00500000 -0.00100000 0.00000000)
	arc 56 59 (-0.00500000 0.00000000 0.00100000) // arc 56 59 origin 1 (-0.00500000 -0.00100000 0.00100000)
	arc 55 60 (-0.00600000 -0.00100000 0.00000000) // arc 55 60 origin 1 (-0.00500000 -0.00100000 0.00000000)
	arc 59 61 (-0.00600000 -0.00100000 0.00100000) // arc 59 61 origin 1 (-0.00500000 -0.00100000 0.00100000)
	arc 60 62 (-0.00500000 -0.00200000 0.00000000) // arc 60 62 origin 1 (-0.00500000 -0.00100000 0.00000000)
	arc 61 63 (-0.00500000 -0.00200000 0.00100000) // arc 61 63 origin 1 (-0.00500000 -0.00100000 0.00100000)
	arc 62 52 (-0.00400000 -0.00100000 0.00000000) // arc 62 52 origin 1 (-0.00500000 -0.00100000 0.00000000)
	arc 63 56 (-0.00400000 -0.00100000 0.00100000) // arc 63 56 origin 1 (-0.00500000 -0.00100000 0.00100000)
	arc 64 66 (-0.00100000 0.00000000 0.00000000) // arc 64 66 origin 1 (-0.00100000 -0.00100000 0.00000000)
	arc 67 69 (-0.00100000 0.00000000 0.00100000) // arc 67 69 origin 1 (-0.00100000 -0.00100000 0.00100000)
	arc 66 70 (-0.00200000 -0.00100000 0.00000000) // arc 66 70 origin 1 (-0.00100000 -0.00100000 0.00000000)
	arc 69 71 (-0.00200000 -0.00100000 0.00100000) // arc 69 71 origin 1 (-0.00100000 -0.00100000 0.00100000)
	arc 70 72 (-0.00100000 -0.00200000 0.00000000) // arc 70 72 origin 1 (-0.00100000 -0.00100000 0.00000000)
	arc 71 73 (-0.00100000 -0.00200000 0.00100000) // arc 71 73 origin 1 (-0.00100000 -0.00100000 0.00100000)
	arc 72 64 (0.00000000 -0.00100000 0.00000000) // arc 72 64 origin 1 (-0.00100000 -0.00100000 0.00000000)
	arc 73 67 (0.00000000 -0.00100000 0.00100000) // arc 73 67 origin 1 (-0.00100000 -0.00100000 0.00100000)
	arc 74 76 (0.00300000 0.00000000 0.00000000) // arc 74 76 origin 1 (0.00300000 -0.00100000 0.00000000)
	arc 77 79 (0.00300000 0.00000000 0.00100000) // arc 77 79 origin 1 (0.00300000 -0.00100000 0.00100000)
	arc 76 80 (0.00200000 -0.00100000 0.00000000) // arc 76 80 origin 1 (0.00300000 -0.00100000 0.00000000)
	arc 79 81 (0.00200000 -0.00100000 0.00100000) // arc 79 81 origin 1 (0.00300000 -0.00100000 0.00100000)
	arc 80 82 (0.00300000 -0.00200000 0.00000000) // arc 80 82 origin 1 (0.00300000 -0.00100000 0.00000000)
	arc 81 83 (0.00300000 -0.00200000 0.00100000) // arc 81 83 origin 1 (0.00300000 -0.00100000 0.00100000)
	arc 82 74 (0.00400000 -0.00100000 0.00000000) // arc 82 74 origin 1 (0.00300000 -0.00100000 0.00000000)
	arc 83 77 (0.00400000 -0.00100000 0.00100000) // arc 83 77 origin 1 (0.00300000 -0.00100000 0.00100000)
	arc 84 86 (0.00700000 0.00000000 0.00000000) // arc 84 86 origin 1 (0.00700000 -0.00100000 0.00000000)
	arc 87 89 (0.00700000 0.00000000 0.00100000) // arc 87 89 origin 1 (0.00700000 -0.00100000 0.00100000)
	arc 86 90 (0.00600000 -0.00100000 0.00000000) // arc 86 90 origin 1 (0.00700000 -0.00100000 0.00000000)
	arc 89 91 (0.00600000 -0.00100000 0.00100000) // arc 89 91 origin 1 (0.00700000 -0.00100000 0.00100000)
	arc 90 92 (0.00700000 -0.00200000 0.00000000) // arc 90 92 origin 1 (0.00700000 -0.00100000 0.00000000)
	arc 91 93 (0.00700000 -0.00200000 0.00100000) // arc 91 93 origin 1 (0.00700000 -0.00100000 0.00100000)
	arc 92 84 (0.00800000 -0.00100000 0.00000000) // arc 92 84 origin 1 (0.00700000 -0.00100000 0.00000000)
	arc 93 87 (0.00800000 -0.00100000 0.00100000) // arc 93 87 origin 1 (0.00700000 -0.00100000 0.00100000)
	arc 94 97 (-0.00500000 0.00400000 0.00000000) // arc 94 97 origin 1 (-0.00500000 0.00300000 0.00000000)
	arc 98 101 (-0.00500000 0.00400000 0.00100000) // arc 98 101 origin 1 (-0.00500000 0.00300000 0.00100000)
	arc 97 102 (-0.00600000 0.00300000 0.00000000) // arc 97 102 origin 1 (-0.00500000 0.00300000 0.00000000)
	arc 101 103 (-0.00600000 0.00300000 0.00100000) // arc 101 103 origin 1 (-0.00500000 0.00300000 0.00100000)
	arc 102 104 (-0.00500000 0.00200000 0.00000000) // arc 102 104 origin 1 (-0.00500000 0.00300000 0.00000000)
	arc 103 105 (-0.00500000 0.00200000 0.00100000) // arc 103 105 origin 1 (-0.00500000 0.00300000 0.00100000)
	arc 104 94 (-0.00400000 0.00300000 0.00000000) // arc 104 94 origin 1 (-0.00500000 0.00300000 0.00000000)
	arc 105 98 (-0.00400000 0.00300000 0.00100000) // arc 105 98 origin 1 (-0.00500000 0.00300000 0.00100000)
	arc 106 108 (-0.00100000 0.00400000 0.00000000) // arc 106 108 origin 1 (-0.00100000 0.00300000 0.00000000)
	arc 109 111 (-0.00100000 0.00400000 0.00100000) // arc 109 111 origin 1 (-0.00100000 0.00300000 0.00100000)
	arc 108 112 (-0.00200000 0.00300000 0.00000000) // arc 108 112 origin 1 (-0.00100000 0.00300000 0.00000000)
	arc 111 113 (-0.00200000 0.00300000 0.00100000) // arc 111 113 origin 1 (-0.00100000 0.00300000 0.00100000)
	arc 112 114 (-0.00100000 0.00200000 0.00000000) // arc 112 114 origin 1 (-0.00100000 0.00300000 0.00000000)
	arc 113 115 (-0.00100000 0.00200000 0.00100000) // arc 113 115 origin 1 (-0.00100000 0.00300000 0.00100000)
	arc 114 106 (0.00000000 0.00300000 0.00000000) // arc 114 106 origin 1 (-0.00100000 0.00300000 0.00000000)
	arc 115 109 (0.00000000 0.00300000 0.00100000) // arc 115 109 origin 1 (-0.00100000 0.00300000 0.00100000)
	arc 116 118 (0.00300000 0.00400000 0.00000000) // arc 116 118 origin 1 (0.00300000 0.00300000 0.00000000)
	arc 119 121 (0.00300000 0.00400000 0.00100000) // arc 119 121 origin 1 (0.00300000 0.00300000 0.00100000)
	arc 118 122 (0.00200000 0.00300000 0.00000000) // arc 118 122 origin 1 (0.00300000 0.00300000 0.00000000)
	arc 121 123 (0.00200000 0.00300000 0.00100000) // arc 121 123 origin 1 (0.00300000 0.00300000 0.00100000)
	arc 122 124 (0.00300000 0.00200000 0.00000000) // arc 122 124 origin 1 (0.00300000 0.00300000 0.00000000)
	arc 123 125 (0.00300000 0.00200000 0.00100000) // arc 123 125 origin 1 (0.00300000 0.00300000 0.00100000)
	arc 124 116 (0.00400000 0.00300000 0.00000000) // arc 124 116 origin 1 (0.00300000 0.00300000 0.00000000)
	arc 125 119 (0.00400000 0.00300000 0.00100000) // arc 125 119 origin 1 (0.00300000 0.00300000 0.00100000)
	arc 126 128 (0.00700000 0.00400000 0.00000000) // arc 126 128 origin 1 (0.00700000 0.00300000 0.00000000)
	arc 129 131 (0.00700000 0.00400000 0.00100000) // arc 129 131 origin 1 (0.00700000 0.00300000 0.00100000)
	arc 128 132 (0.00600000 0.00300000 0.00000000) // arc 128 132 origin 1 (0.00700000 0.00300000 0.00000000)
	arc 131 133 (0.00600000 0.00300000 0.00100000) // arc 131 133 origin 1 (0.00700000 0.00300000 0.00100000)
	arc 132 134 (0.00700000 0.00200000 0.00000000) // arc 132 134 origin 1 (0.00700000 0.00300000 0.00000000)
	arc 133 135 (0.00700000 0.00200000 0.00100000) // arc 133 135 origin 1 (0.00700000 0.00300000 0.00100000)
	arc 134 126 (0.00800000 0.00300000 0.00000000) // arc 134 126 origin 1 (0.00700000 0.00300000 0.00000000)
	arc 135 129 (0.00800000 0.00300000 0.00100000) // arc 135 129 origin 1 (0.00700000 0.00300000 0.00100000)
	arc 136 139 (-0.00500000 0.00800000 0.00000000) // arc 136 139 origin 1 (-0.00500000 0.00700000 0.00000000)
	arc 140 143 (-0.00500000 0.00800000 0.00100000) // arc 140 143 origin 1 (-0.00500000 0.00700000 0.00100000)
	arc 139 144 (-0.00600000 0.00700000 0.00000000) // arc 139 144 origin 1 (-0.00500000 0.00700000 0.00000000)
	arc 143 145 (-0.00600000 0.00700000 0.00100000) // arc 143 145 origin 1 (-0.00500000 0.00700000 0.00100000)
	arc 144 146 (-0.00500000 0.00600000 0.00000000) // arc 144 146 origin 1 (-0.00500000 0.00700000 0.00000000)
	arc 145 147 (-0.00500000 0.00600000 0.00100000) // arc 145 147 origin 1 (-0.00500000 0.00700000 0.00100000)
	arc 146 136 (-0.00400000 0.00700000 0.00000000) // arc 146 136 origin 1 (-0.00500000 0.00700000 0.00000000)
	arc 147 140 (-0.00400000 0.00700000 0.00100000) // arc 147 140 origin 1 (-0.00500000 0.00700000 0.00100000)
	arc 148 150 (-0.00100000 0.00800000 0.00000000) // arc 148 150 origin 1 (-0.00100000 0.00700000 0.00000000)
	arc 151 153 (-0.00100000 0.00800000 0.00100000) // arc 151 153 origin 1 (-0.00100000 0.00700000 0.00100000)
	arc 150 154 (-0.00200000 0.00700000 0.00000000) // arc 150 154 origin 1 (-0.00100000 0.00700000 0.00000000)
	arc 153 155 (-0.00200000 0.00700000 0.00100000) // arc 153 155 origin 1 (-0.00100000 0.00700000 0.00100000)
	arc 154 156 (-0.00100000 0.00600000 0.00000000) // arc 154 156 origin 1 (-0.00100000 0.00700000 0.00000000)
	arc 155 157 (-0.00100000 0.00600000 0.00100000) // arc 155 157 origin 1 (-0.00100000 0.00700000 0.00100000)
	arc 156 148 (0.00000000 0.00700000 0.00000000) // arc 156 148 origin 1 (-0.00100000 0.00700000 0.00000000)
	arc 157 151 (0.00000000 0.00700000 0.00100000) // arc 157 151 origin 1 (-0.00100000 0.00700000 0.00100000)
	arc 158 160 (0.00300000 0.00800000 0.00000000) // arc 158 160 origin 1 (0.00300000 0.00700000 0.00000000)
	arc 161 163 (0.00300000 0.00800000 0.00100000) // arc 161 163 origin 1 (0.00300000 0.00700000 0.00100000)
	arc 160 164 (0.00200000 0.00700000 0.00000000) // arc 160 164 origin 1 (0.00300000 0.00700000 0.00000000)
	arc 163 165 (0.00200000 0.00700000 0.00100000) // arc 163 165 origin 1 (0.00300000 0.00700000 0.00100000)
	arc 164 166 (0.00300000 0.00600000 0.00000000) // arc 164 166 origin 1 (0.00300000 0.00700000 0.00000000)
	arc 165 167 (0.00300000 0.00600000 0.00100000) // arc 165 167 origin 1 (0.00300000 0.00700000 0.00100000)
	arc 166 158 (0.00400000 0.00700000 0.00000000) // arc 166 158 origin 1 (0.00300000 0.00700000 0.00000000)
	arc 167 161 (0.00400000 0.00700000 0.00100000) // arc 167 161 origin 1 (0.00300000 0.00700000 0.00100000)
	arc 168 170 (0.00700000 0.00800000 0.00000000) // arc 168 170 origin 1 (0.00700000 0.00700000 0.00000000)
	arc 171 173 (0.00700000 0.00800000 0.00100000) // arc 171 173 origin 1 (0.00700000 0.00700000 0.00100000)
	arc 170 174 (0.00600000 0.00700000 0.00000000) // arc 170 174 origin 1 (0.00700000 0.00700000 0.00000000)
	arc 173 175 (0.00600000 0.00700000 0.00100000) // arc 173 175 origin 1 (0.00700000 0.00700000 0.00100000)
	arc 174 176 (0.00700000 0.00600000 0.00000000) // arc 174 176 origin 1 (0.00700000 0.00700000 0.00000000)
	arc 175 177 (0.00700000 0.00600000 0.00100000) // arc 175 177 origin 1 (0.00700000 0.00700000 0.00100000)
	arc 176 168 (0.00800000 0.00700000 0.00000000) // arc 176 168 origin 1 (0.00700000 0.00700000 0.00000000)
	arc 177 171 (0.00800000 0.00700000 0.00100000) // arc 177 171 origin 1 (0.00700000 0.00700000 0.00100000)
);

boundary
(
);

faces
(
);

defaultPatch
{
	name infinity;
	type patch;
}

mergePatchPairs
(
);

scale 1;

// * * * * * * * * * * * * * * * * * * * * * * * * * * * * * * * * * * * * * //
// Created with classy_blocks: https://github.com/damogranlabs/classy_blocks //
// * * * * * * * * * * * * * * * * * * * * * * * * * * * * * * * * * * * * * //
